CM GSM-900 Monopole, 880 MHz to 960 MHz
CM Brass rod 1/4 wavelength element 77.5 mm, 3 mm diameter
CM Sheet metal ground plane 100 mm radius or 200 mm square
CM Copyright (C) 2007 Robert Fitzsimons <robfitz at 273k dot net>
CE End Comments
GW     1    31  0.00000E+00  0.00000E+00  0.00000E+00  0.00000E+00  0.00000E+00  7.75000E-02  1.50000E-03
GE     0     0  0.00000E+00  0.00000E+00  0.00000E+00  0.00000E+00  0.00000E+00  0.00000E+00  0.00000E+00
EX     0     1     1      0  1.00000E+00  0.00000E+00  0.00000E+00  0.00000E+00  0.00000E+00  0.00000E+00
FR     0    51     0      0  8.70000E+02  2.00000E+00  0.00000E+00  0.00000E+00  0.00000E+00  0.00000E+00
NH     0     0     0      0  0.00000E+00  0.00000E+00  0.00000E+00  0.00000E+00  0.00000E+00  0.00000E+00
NE     0    10     1     10 -1.35000E+00  0.00000E+00 -1.35000E+00  3.00000E-01  0.00000E+00  3.00000E-01
RP     6    19    37   1000  0.00000E+00  0.00000E+00  5.00000E+00  1.00000E+01  0.00000E+00  0.00000E+00
GN     0    64     0      0  1.20000E+01  5.00000E+00  1.00000E-01  1.00000E-03  0.00000E+00  0.00000E+00
GD     0     0     0      0  8.00000E+01  5.00000E+00  1.00000E-03  1.00000E-03  0.00000E+00  0.00000E+00
EN     0     0     0      0  0.00000E+00  0.00000E+00  0.00000E+00  0.00000E+00  0.00000E+00  0.00000E+00
