CM GSM-850 6 Element Yagi, 824 MHz to 894 MHz
CM Brass rod elements 3 mm diameter
CM Copyright (C) 2007 Robert Fitzsimons <robfitz at 273k dot net>
CE End Comments
GW    10    31  0.00000E+00  0.00000E+00  9.10000E-02  0.00000E+00  0.00000E+00 -9.10000E-02  1.50000E-03
GW     1    31  4.35000E-02  0.00000E+00  7.95000E-02  4.35000E-02  0.00000E+00 -7.95000E-02  1.50000E-03
GW    11    31  8.45000E-02  0.00000E+00  7.05000E-02  8.45000E-02  0.00000E+00 -7.05000E-02  1.50000E-03
GW    12    31  1.54000E-01  0.00000E+00  6.80000E-02  1.54000E-01  0.00000E+00 -6.80000E-02  1.50000E-03
GW    13    31  2.17500E-01  0.00000E+00  6.40000E-02  2.17500E-01  0.00000E+00 -6.40000E-02  1.50000E-03
GW    14    31  2.76000E-01  0.00000E+00  6.10000E-02  2.76000E-01  0.00000E+00 -6.10000E-02  1.50000E-03
GE     0     0  0.00000E+00  0.00000E+00  0.00000E+00  0.00000E+00  0.00000E+00  0.00000E+00  0.00000E+00
EX     0     1    16      0  1.00000E+00  0.00000E+00  0.00000E+00  0.00000E+00  0.00000E+00  0.00000E+00
FR     0    36     0      0  8.24000E+02  2.00000E+00  0.00000E+00  0.00000E+00  0.00000E+00  0.00000E+00
NH     0     0     0      0  0.00000E+00  0.00000E+00  0.00000E+00  0.00000E+00  0.00000E+00  0.00000E+00
NE     0    10     1     10 -1.35000E+00  0.00000E+00 -1.35000E+00  3.00000E-01  0.00000E+00  3.00000E-01
RP     0    19    37      0  0.00000E+00  0.00000E+00  1.00000E+01  1.00000E+01  0.00000E+00  0.00000E+00
EN     0     0     0      0  0.00000E+00  0.00000E+00  0.00000E+00  0.00000E+00  0.00000E+00  0.00000E+00
