CM GSM-1800 6 Element Yagi, 1710 MHz to 1880 MHz
CM Brass rod elements 3 mm diameter
CM Copyright (C) 2007 Robert Fitzsimons <robfitz at 273k dot net>
CE End Comments
GW    10    31  0.00000E+00  0.00000E+00  4.35000E-02  0.00000E+00  0.00000E+00 -4.35000E-02  1.50000E-03
GW     1    31  2.10000E-02  0.00000E+00  3.80000E-02  2.10000E-02  0.00000E+00 -3.80000E-02  1.50000E-03
GW    11    31  4.05000E-02  0.00000E+00  3.35000E-02  4.05000E-02  0.00000E+00 -3.35000E-02  1.50000E-03
GW    12    31  7.35000E-02  0.00000E+00  3.25000E-02  7.35000E-02  0.00000E+00 -3.25000E-02  1.50000E-03
GW    13    31  1.04000E-01  0.00000E+00  3.05000E-02  1.04000E-01  0.00000E+00 -3.05000E-02  1.50000E-03
GW    14    31  1.32000E-01  0.00000E+00  2.90000E-02  1.32000E-01  0.00000E+00 -2.90000E-02  1.50000E-03
GE     0     0  0.00000E+00  0.00000E+00  0.00000E+00  0.00000E+00  0.00000E+00  0.00000E+00  0.00000E+00
EX     0     1    16      0  1.00000E+00  0.00000E+00  0.00000E+00  0.00000E+00  0.00000E+00  0.00000E+00
FR     0    44     0      0  1.71000E+03  4.00000E+00  0.00000E+00  0.00000E+00  0.00000E+00  0.00000E+00
NH     0     0     0      0  0.00000E+00  0.00000E+00  0.00000E+00  0.00000E+00  0.00000E+00  0.00000E+00
NE     0    10     1     10 -1.35000E+00  0.00000E+00 -1.35000E+00  3.00000E-01  0.00000E+00  3.00000E-01
RP     0    19    37      0  0.00000E+00  0.00000E+00  1.00000E+01  1.00000E+01  0.00000E+00  0.00000E+00
EN     0     0     0      0  0.00000E+00  0.00000E+00  0.00000E+00  0.00000E+00  0.00000E+00  0.00000E+00
