CM GSM-900 6 Element Yagi, 876 MHz to 960 MHz
CM Brass rod elements 3 mm diameter
CM Copyright (C) 2007 Robert Fitzsimons <robfitz at 273k dot net>
CE End Comments
GW    10    31  0.00000E+00  0.00000E+00  8.55000E-02  0.00000E+00  0.00000E+00 -8.55000E-02  1.50000E-03
GW     1    31  4.10000E-02  0.00000E+00  7.45000E-02  4.10000E-02  0.00000E+00 -7.45000E-02  1.50000E-03
GW    11    31  7.90000E-02  0.00000E+00  6.60000E-02  7.90000E-02  0.00000E+00 -6.60000E-02  1.50000E-03
GW    12    31  1.44000E-01  0.00000E+00  6.35000E-02  1.44000E-01  0.00000E+00 -6.35000E-02  1.50000E-03
GW    13    31  2.04000E-01  0.00000E+00  6.00000E-02  2.04000E-01  0.00000E+00 -6.00000E-02  1.50000E-03
GW    14    31  2.58000E-01  0.00000E+00  5.70000E-02  2.58000E-01  0.00000E+00 -5.70000E-02  1.50000E-03
GE     0     0  0.00000E+00  0.00000E+00  0.00000E+00  0.00000E+00  0.00000E+00  0.00000E+00  0.00000E+00
EX     0     1    16      0  1.00000E+00  0.00000E+00  0.00000E+00  0.00000E+00  0.00000E+00  0.00000E+00
FR     0    43     0      0  8.76000E+02  2.00000E+00  0.00000E+00  0.00000E+00  0.00000E+00  0.00000E+00
NH     0     0     0      0  0.00000E+00  0.00000E+00  0.00000E+00  0.00000E+00  0.00000E+00  0.00000E+00
NE     0    10     1     10 -1.35000E+00  0.00000E+00 -1.35000E+00  3.00000E-01  0.00000E+00  3.00000E-01
RP     0    19    37      0  0.00000E+00  0.00000E+00  1.00000E+01  1.00000E+01  0.00000E+00  0.00000E+00
EN     0     0     0      0  0.00000E+00  0.00000E+00  0.00000E+00  0.00000E+00  0.00000E+00  0.00000E+00
